*Heading
** Job name: Abaqus Model name: Abaqus
** Generated by: Abaqus/CAE 2017
*Preprint, echo=NO, model=NO, history=NO, contact=NO
**
** PARTS
**
*Part, name=Bar
*Node
      1,         500.,          10.,          10.
      2,         500.,           8.,          10.
      3,         500.,           6.,          10.
      4,         500.,           4.,          10.
      5,         500.,           2.,          10.
      6,         500.,           0.,          10.
      7,         500.,          10.,           8.
      8,         500.,           8.,           8.
      9,         500.,           6.,           8.
     10,         500.,           4.,           8.
     11,         500.,           2.,           8.
     12,         500.,           0.,           8.
     13,         500.,          10.,           6.
     14,         500.,           8.,           6.
     15,         500.,           6.,           6.
     16,         500.,           4.,           6.
     17,         500.,           2.,           6.
     18,         500.,           0.,           6.
     19,         500.,          10.,           4.
     20,         500.,           8.,           4.
** ... 9016 like lines cut
*Element, type=C3D8
   1,   37,   38,   44,   43,    1,    2,    8,    7
   2,   38,   39,   45,   44,    2,    3,    9,    8
   3,   39,   40,   46,   45,    3,    4,   10,    9
   4,   40,   41,   47,   46,    4,    5,   11,   10
   5,   41,   42,   48,   47,    5,    6,   12,   11
   6,   43,   44,   50,   49,    7,    8,   14,   13
   7,   44,   45,   51,   50,    8,    9,   15,   14
   8,   45,   46,   52,   51,    9,   10,   16,   15
   9,   46,   47,   53,   52,   10,   11,   17,   16
  10,   47,   48,   54,   53,   11,   12,   18,   17
  11,   49,   50,   56,   55,   13,   14,   20,   19
  12,   50,   51,   57,   56,   14,   15,   21,   20
  13,   51,   52,   58,   57,   15,   16,   22,   21
  14,   52,   53,   59,   58,   16,   17,   23,   22
  15,   53,   54,   60,   59,   17,   18,   24,   23
  16,   55,   56,   62,   61,   19,   20,   26,   25
  17,   56,   57,   63,   62,   20,   21,   27,   26
  18,   57,   58,   64,   63,   21,   22,   28,   27
  19,   58,   59,   65,   64,   22,   23,   29,   28
  20,   59,   60,   66,   65,   23,   24,   30,   29
** ... 6230 like lines cut
*Nset, nset=_PickedSet2, internal, generate
    1,  9036,     1
*Elset, elset=_PickedSet2, internal, generate
    1,  6250,     1
** Section: Solid
*Solid Section, elset=_PickedSet2, material=Steel
,
*End Part
**  
**
** ASSEMBLY
**
*Assembly, name=Assembly
**  
*Instance, name=Bar-1, part=Bar
*End Instance
**  
*Nset, nset=_PickedSet4, internal, instance=Bar-1, generate
 9001,  9036,     1
*Elset, elset=_PickedSet4, internal, instance=Bar-1, generate
 6226,  6250,     1
*Elset, elset=__PickedSurf5_S6, internal, instance=Bar-1, generate
    1,  6246,     5
*Surface, type=ELEMENT, name=_PickedSurf5, internal
__PickedSurf5_S6, S6
*End Assembly
** 
** MATERIALS
** 
*Material, name=Steel
*Elastic
200000., 0.3
*Material, name=UserMAT
*User Material, constants=2
200000., 0.3
** 
** BOUNDARY CONDITIONS
** 
** Name: Fixed Type: Symmetry/Antisymmetry/Encastre
*Boundary
_PickedSet4, ENCASTRE
** ----------------------------------------------------------------
** 
** STEP: Load
** 
*Step, name=Load, nlgeom=NO
*Static
1., 1., 1e-05, 1.
** 
** LOADS
** 
** Name: Pressure   Type: Pressure
*Dsload
_PickedSurf5, P, 0.01
** 
** OUTPUT REQUESTS
** 
*Restart, write, frequency=0
** 
** FIELD OUTPUT: F-Output-1
** 
*Output, field, variable=PRESELECT
** 
** HISTORY OUTPUT: H-Output-1
** 
*Output, history, variable=PRESELECT
*End Step
